123Buses/My123_Modified_EXP_LOSSES.CSV
Element,  Total(W), Total(var),  I2R(W), I2X(var), No-load(W), No-load(var)
Transformer.TR1, 11255.39, 64320.96, 11255.39, 64320.96, 0, 0
Line.L115, 11046.5, 23016.17, 11046.5, 23016.17, 0, 0
Line.L1, 4.160411, -38.24262, 4.160411, -38.24262, 0, 0
Line.L2, 156.0931, 19.79287, 156.0931, 19.79287, 0, 0
Line.L3, 7342.44, 15249.69, 7342.44, 15249.69, 0, 0
Line.L4, 19.21475, -36.39079, 19.21475, -36.39079, 0, 0
Line.L5, 74.96709, -37.49275, 74.96709, -37.49275, 0, 0
Line.L6, 25.95332, -44.49835, 25.95332, -44.49835, 0, 0
Line.L7, 4955.49, 10285.87, 4955.49, 10285.87, 0, 0
Line.L8, 5.381198, -48.27036, 5.381198, -48.27036, 0, 0
Line.L9, 140.3436, 18.63295, 140.3436, 18.63295, 0, 0
Line.L10, 6532.28, 13512.76, 6532.28, 13512.76, 0, 0
Line.L11, 94.99787, -48.86403, 94.99787, -48.86403, 0, 0
Line.L12, 123.8707, 28.15721, 123.8707, 28.15721, 0, 0
Line.L13, 3928.611, 8014.186, 3928.611, 8014.186, 0, 0
Line.L14, 24.76565, -44.10652, 24.76565, -44.10652, 0, 0
Line.L15, 6.2494, -53.26671, 6.2494, -53.26671, 0, 0
Line.L16, 37.12181, -65.39555, 37.12181, -65.39555, 0, 0
Line.L17, 8.651722, -73.89923, 8.651722, -73.89923, 0, 0
Line.L18, 101.911, -4.765353, 101.911, -4.765353, 0, 0
Line.L19, 70.19291, 136.6618, 70.19291, 136.6618, 0, 0
Line.L20, 32.4991, -55.60965, 32.4991, -55.60965, 0, 0
Line.L21, 55.05973, -90.00269, 55.05973, -90.00269, 0, 0
Line.L22, 82.43855, 164.8443, 82.43855, 164.8443, 0, 0
Line.L23, 55.29478, -93.81293, 55.29478, -93.81293, 0, 0
Line.L24, 57.48081, 110.3063, 57.48081, 110.3063, 0, 0
Line.L25, 9.697197, 10.9868, 9.697197, 10.9868, 0, 0
Line.L26, 25.86412, 50.10138, 25.86412, 50.10138, 0, 0
Line.L27, 1.653537, -2.338792, 1.653537, -2.338792, 0, 0
Line.L28, 22.63972, -38.33437, 22.63972, -38.33437, 0, 0
Line.L29, 10.00457, -105.1175, 10.00457, -105.1175, 0, 0
Line.L30, 14.76947, 24.31216, 14.76947, 24.31216, 0, 0
Line.L31, 10.60299, 17.06337, 10.60299, 17.06337, 0, 0
Line.L32, -4.167875E-008, -4.522556, -4.167875E-008, -4.522556, 0, 0
Line.L33, 7.550304, -62.29139, 7.550304, -62.29139, 0, 0
Line.L34, 22.25803, -11.33459, 22.25803, -11.33459, 0, 0
Line.L35, 32.0232, 58.88034, 32.0232, 58.88034, 0, 0
Line.L36, 377.9566, 761.4371, 377.9566, 761.4371, 0, 0
Line.L37, 28.70341, -51.69926, 28.70341, -51.69926, 0, 0
Line.L38, 24.74631, -43.34977, 24.74631, -43.34977, 0, 0
Line.L39, 7.900338, -67.67797, 7.900338, -67.67797, 0, 0
Line.L40, 8.162271, -67.2469, 8.162271, -67.2469, 0, 0
Line.L41, 388.8903, 781.6306, 388.8903, 781.6306, 0, 0
Line.L42, 52.08427, -85.06447, 52.08427, -85.06447, 0, 0
Line.L43, 250.8764, 506.8676, 250.8764, 506.8676, 0, 0
Line.L44, 46.63003, -21.2057, 46.63003, -21.2057, 0, 0
Line.L45, 297.1121, 604.9419, 297.1121, 604.9419, 0, 0
Line.L46, 7.894118, -61.64178, 7.894118, -61.64178, 0, 0
Line.L47, 27.89643, 56.95397, 27.89643, 56.95397, 0, 0
Line.L48, 48.65536, 95.25211, 48.65536, 95.25211, 0, 0
Line.L49, 8.238445, 13.49385, 8.238445, 13.49385, 0, 0
Line.L50, 1.998003, -0.9991744, 1.998003, -0.9991744, 0, 0
Line.L51, 5.515266E-008, -11.22055, 5.515266E-008, -11.22055, 0, 0
Line.L52, 1043.555, 2145.094, 1043.555, 2145.094, 0, 0
Line.L53, 597.1384, 1225.504, 597.1384, 1225.504, 0, 0
Line.L54, 3.369644, 0.9227844, 3.369644, 0.9227844, 0, 0
Line.L55, 1629.697, 3336.979, 1629.697, 3336.979, 0, 0
Line.L56, 2.026012, -1.683098, 2.026012, -1.683098, 0, 0
Line.L57, 24.78097, -43.26045, 24.78097, -43.26045, 0, 0
Line.L58, 3261.253, 6690.51, 3261.253, 6690.51, 0, 0
Line.L59, 6.093818, -51.98023, 6.093818, -51.98023, 0, 0
Line.L60, 117.0839, 227.8029, 117.0839, 227.8029, 0, 0
Line.L61, 537.7732, 208.924, 537.7732, 208.924, 0, 0
Line.L62, 276.8559, 96.70163, 276.8559, 96.70163, 0, 0
Line.L63, 555.0126, 193.2144, 555.0126, 193.2144, 0, 0
Line.L64, 440.6164, 129.9525, 440.6164, 129.9525, 0, 0
Line.L65, 146.287, 2.335148, 146.287, 2.335148, 0, 0
Line.L66, 193.8053, 52.72324, 193.8053, 52.72324, 0, 0
Line.L67, 782.9282, 1589.826, 782.9282, 1589.826, 0, 0
Line.L68, 68.46979, 145.3479, 68.46979, 145.3479, 0, 0
Line.L69, 185.2419, 32.3591, 185.2419, 32.3591, 0, 0
Line.L70, 78.92585, -30.94574, 78.92585, -30.94574, 0, 0
Line.L71, 29.69982, -44.49989, 29.69982, -44.49989, 0, 0
Line.L72, 277.1255, 77.70296, 277.1255, 77.70296, 0, 0
Line.L73, 468.8315, 984.7684, 468.8315, 984.7684, 0, 0
Line.L74, 173.463, 10.41012, 173.463, 10.41012, 0, 0
Line.L75, 77.23969, -47.79642, 77.23969, -47.79642, 0, 0
Line.L76, 60.7961, 118.1625, 60.7961, 118.1625, 0, 0
Line.L77, 280.4433, 604.1043, 280.4433, 604.1043, 0, 0
Line.L78, 15.01456, 30.50404, 15.01456, 30.50404, 0, 0
Line.L79, 15.33387, 33.47565, 15.33387, 33.47565, 0, 0
Line.L80, 64.14257, 120.2637, 64.14257, 120.2637, 0, 0
Line.L81, 23.79778, 46.41232, 23.79778, 46.41232, 0, 0
Line.L82, 8.649188, 13.44486, 8.649188, 13.44486, 0, 0
Line.L83, 156.3827, -67.00952, 156.3827, -67.00952, 0, 0
Line.L84, 1.963493, -1.09765, 1.963493, -1.09765, 0, 0
Line.L85, 48.96486, -77.26842, 48.96486, -77.26842, 0, 0
Line.L86, 143.8136, 304.084, 143.8136, 304.084, 0, 0
Line.L87, 18.9092, -28.0388, 18.9092, -28.0388, 0, 0
Line.L88, 36.50198, 72.04445, 36.50198, 72.04445, 0, 0
Line.L89, 25.20006, -41.6044, 25.20006, -41.6044, 0, 0
Line.L90, 14.02346, 23.71311, 14.02346, 23.71311, 0, 0
Line.L91, 30.58268, -48.90468, 30.58268, -48.90468, 0, 0
Line.L92, 11.87018, 22.34456, 11.87018, 22.34456, 0, 0
Line.L93, 29.77521, -43.95361, 29.77521, -43.95361, 0, 0
Line.L94, 9.088834, 14.38104, 9.088834, 14.38104, 0, 0
Line.L95, 5.032826, -40.32029, 5.032826, -40.32029, 0, 0
Line.L96, 13.81628, 22.14508, 13.81628, 22.14508, 0, 0
Line.L97, 27.24209, 45.35251, 27.24209, 45.35251, 0, 0
Line.L98, 9.046236, 13.65156, 9.046236, 13.65156, 0, 0
Line.L99, 2.207703E-007, -17.78635, 2.207703E-007, -17.78635, 0, 0
Line.L100, 110.4967, 6.538558, 110.4967, 6.538558, 0, 0
Line.L101, 62.95026, 139.7445, 62.95026, 139.7445, 0, 0
Line.L102, 191.8689, 25.44711, 191.8689, 25.44711, 0, 0
Line.L103, 162.5061, -70.53933, 162.5061, -70.53933, 0, 0
Line.L104, 88.95386, -6.932579, 88.95386, -6.932579, 0, 0
Line.L105, 123.7334, 278.3408, 123.7334, 278.3408, 0, 0
Line.L106, 56.91471, -97.26612, 56.91471, -97.26612, 0, 0
Line.L107, 564.6724, 182.3884, 564.6724, 182.3884, 0, 0
Line.L108, 4.226961E-007, -22.22283, 4.226961E-007, -22.22283, 0, 0
Line.L109, 187.6086, 28.28004, 187.6086, 28.28004, 0, 0
Line.L110, 15.67981, -115.8114, 15.67981, -115.8114, 0, 0
Line.L111, 48.94206, -2.658826, 48.94206, -2.658826, 0, 0
Line.L112, 114.8159, -55.9839, 114.8159, -55.9839, 0, 0
Line.L113, 8.905657, -65.36895, 8.905657, -65.36895, 0, 0
Line.L119, 5.94034, 7.731074, 5.94034, 7.731074, 0, 0
Line.L120, 5.630382, 7.682819, 5.630382, 7.682819, 0, 0
Line.L121, 58.88749, 114.5307, 58.88749, 114.5307, 0, 0
Line.L114, 832.6652, 1716.186, 832.6652, 1716.186, 0, 0
Line.L116, 2287.666, 4716.062, 2287.666, 4716.062, 0, 0
Line.L117, 1140.728, 2422.439, 1140.728, 2422.439, 0, 0
Line.L118, 33.52878, 73.0886, 33.52878, 73.0886, 0, 0
