123Buses/My123_Modified_EXP_POWERS.CSV
Element, Terminal, P(kW), Q(kvar),  P_Normal, Q_Normal, P_Emergency, Q_Emergency
"Transformer.TR1"       ,   1,      2215.7,      1861.3,         0.0,         0.0,         0.0,         0.0
"Transformer.TR1"       ,   2,     -2204.5,     -1797.0
"Line.L115"             ,   1,      2204.5,      1797.0,       413.7,       337.2,         0.0,         0.0
"Line.L115"             ,   2,     -2193.4,     -1774.0
"Line.L1"               ,   1,        20.0,        10.0,         0.0,         0.0,         0.0,         0.0
"Line.L1"               ,   2,       -20.0,       -10.0
"Line.L2"               ,   1,       102.2,        50.9,         0.0,         0.0,         0.0,         0.0
"Line.L2"               ,   2,      -102.0,       -50.8
"Line.L3"               ,   1,      2031.2,      1693.1,       318.2,       265.3,         0.0,         0.0
"Line.L3"               ,   2,     -2023.9,     -1677.9
"Line.L4"               ,   1,        40.0,        20.0,         0.0,         0.0,         0.0,         0.0
"Line.L4"               ,   2,       -40.0,       -20.0
"Line.L5"               ,   1,        62.0,        30.9,         0.0,         0.0,         0.0,         0.0
"Line.L5"               ,   2,       -61.9,       -30.9
"Line.L6"               ,   1,        41.5,        20.7,         0.0,         0.0,         0.0,         0.0
"Line.L6"               ,   2,       -41.5,       -20.8
"Line.L7"               ,   1,      2043.9,      1667.9,       335.7,       273.9,         0.0,         0.0
"Line.L7"               ,   2,     -2038.9,     -1657.6
"Line.L8"               ,   1,        20.0,        10.0,         0.0,         0.0,         0.0,         0.0
"Line.L8"               ,   2,       -20.0,       -10.0
"Line.L9"               ,   1,        99.8,        49.6,         0.0,         0.0,         0.0,         0.0
"Line.L9"               ,   2,       -99.7,       -49.6
"Line.L10"              ,   1,      1919.1,      1598.0,       144.9,       120.6,         0.0,         0.0
"Line.L10"              ,   2,     -1912.6,     -1584.5
"Line.L11"              ,   1,        59.7,        29.6,         0.0,         0.0,         0.0,         0.0
"Line.L11"              ,   2,       -59.6,       -29.7
"Line.L12"              ,   1,        60.7,        50.1,         0.0,         0.0,         0.0,         0.0
"Line.L12"              ,   2,       -60.6,       -50.1
"Line.L13"              ,   1,       916.4,       658.9,         0.0,         0.0,         0.0,         0.0
"Line.L13"              ,   2,      -912.4,      -650.9
"Line.L14"              ,   1,        39.6,        19.8,         0.0,         0.0,         0.0,         0.0
"Line.L14"              ,   2,       -39.6,       -19.8
"Line.L15"              ,   1,        19.9,         9.9,         0.0,         0.0,         0.0,         0.0
"Line.L15"              ,   2,       -19.9,       -10.0
"Line.L16"              ,   1,        40.0,        19.9,         0.0,         0.0,         0.0,         0.0
"Line.L16"              ,   2,       -40.0,       -20.0
"Line.L17"              ,   1,        20.0,         9.9,         0.0,         0.0,         0.0,         0.0
"Line.L17"              ,   2,       -20.0,       -10.0
"Line.L18"              ,   1,        79.3,        39.5,         0.0,         0.0,         0.0,         0.0
"Line.L18"              ,   2,       -79.2,       -39.6
"Line.L19"              ,   1,       199.0,       139.4,         0.0,         0.0,         0.0,         0.0
"Line.L19"              ,   2,      -198.9,      -139.3
"Line.L20"              ,   1,        39.2,        19.6,         0.0,         0.0,         0.0,         0.0
"Line.L20"              ,   2,       -39.2,       -19.6
"Line.L21"              ,   1,        41.7,        20.7,         0.0,         0.0,         0.0,         0.0
"Line.L21"              ,   2,       -41.6,       -20.8
"Line.L22"              ,   1,       197.2,       118.5,         0.0,         0.0,         0.0,         0.0
"Line.L22"              ,   2,      -197.1,      -118.4
"Line.L23"              ,   1,        40.1,        19.9,         0.0,         0.0,         0.0,         0.0
"Line.L23"              ,   2,       -40.0,       -20.0
"Line.L24"              ,   1,       157.1,        98.5,         0.0,         0.0,         0.0,         0.0
"Line.L24"              ,   2,      -157.0,       -98.4
"Line.L25"              ,   1,        39.3,        39.4,         0.0,         0.0,         0.0,         0.0
"Line.L25"              ,   2,       -39.3,       -39.4
"Line.L26"              ,   1,       117.8,        58.9,         0.0,         0.0,         0.0,         0.0
"Line.L26"              ,   2,      -117.7,       -58.9
"Line.L27"              ,   1,        -0.8,        19.5,         0.0,         0.0,         0.0,         0.0
"Line.L27"              ,   2,         0.8,       -19.5
"Line.L28"              ,   1,        40.0,        19.9,         0.0,         0.0,         0.0,         0.0
"Line.L28"              ,   2,       -40.0,       -19.9
"Line.L29"              ,   1,        -0.8,        19.5,         0.0,         0.0,         0.0,         0.0
"Line.L29"              ,   2,         0.8,       -19.6
"Line.L30"              ,   1,        78.5,        39.3,         0.0,         0.0,         0.0,         0.0
"Line.L30"              ,   2,       -78.5,       -39.2
"Line.L31"              ,   1,        40.0,        20.0,         0.0,         0.0,         0.0,         0.0
"Line.L31"              ,   2,       -40.0,       -20.0
"Line.L32"              ,   1,        -0.0,        -0.0,         0.0,         0.0,         0.0,         0.0
"Line.L32"              ,   2,         0.0,         0.0
"Line.L33"              ,   1,        20.0,         9.9,         0.0,         0.0,         0.0,         0.0
"Line.L33"              ,   2,       -20.0,       -10.0
"Line.L34"              ,   1,        60.1,        29.8,         0.0,         0.0,         0.0,         0.0
"Line.L34"              ,   2,       -60.0,       -29.9
"Line.L35"              ,   1,        78.7,        39.2,         0.0,         0.0,         0.0,         0.0
"Line.L35"              ,   2,       -78.7,       -39.2
"Line.L36"              ,   1,       514.6,       411.0,         0.0,         0.0,         0.0,         0.0
"Line.L36"              ,   2,      -514.2,      -410.2
"Line.L37"              ,   1,        38.3,        19.1,         0.0,         0.0,         0.0,         0.0
"Line.L37"              ,   2,       -38.3,       -19.1
"Line.L38"              ,   1,        40.4,        20.1,         0.0,         0.0,         0.0,         0.0
"Line.L38"              ,   2,       -40.4,       -20.1
"Line.L39"              ,   1,        20.0,         9.9,         0.0,         0.0,         0.0,         0.0
"Line.L39"              ,   2,       -20.0,       -10.0
"Line.L40"              ,   1,        20.0,         9.9,         0.0,         0.0,         0.0,         0.0
"Line.L40"              ,   2,       -20.0,       -10.0
"Line.L41"              ,   1,       534.2,       400.3,         0.0,         0.0,         0.0,         0.0
"Line.L41"              ,   2,      -533.8,      -399.5
"Line.L42"              ,   1,        41.4,        20.6,         0.0,         0.0,         0.0,         0.0
"Line.L42"              ,   2,       -41.3,       -20.7
"Line.L43"              ,   1,       472.4,       368.9,         0.0,         0.0,         0.0,         0.0
"Line.L43"              ,   2,      -472.1,      -368.4
"Line.L44"              ,   1,        -0.4,        19.7,         0.0,         0.0,         0.0,         0.0
"Line.L44"              ,   2,         0.5,       -19.7
"Line.L45"              ,   1,       472.6,       348.8,         0.0,         0.0,         0.0,         0.0
"Line.L45"              ,   2,      -472.3,      -348.2
"Line.L46"              ,   1,        20.0,         9.9,         0.0,         0.0,         0.0,         0.0
"Line.L46"              ,   2,       -20.0,       -10.0
"Line.L47"              ,   1,       167.8,       148.5,         0.0,         0.0,         0.0,         0.0
"Line.L47"              ,   2,      -167.8,      -148.4
"Line.L48"              ,   1,       200.1,       125.1,         0.0,         0.0,         0.0,         0.0
"Line.L48"              ,   2,      -200.0,      -125.0
"Line.L49"              ,   1,        60.0,        30.0,         0.0,         0.0,         0.0,         0.0
"Line.L49"              ,   2,       -60.0,       -30.0
"Line.L50"              ,   1,        20.0,        10.0,         0.0,         0.0,         0.0,         0.0
"Line.L50"              ,   2,       -20.0,       -10.0
"Line.L51"              ,   1,         0.0,        -0.0,         0.0,         0.0,         0.0,         0.0
"Line.L51"              ,   2,        -0.0,         0.0
"Line.L52"              ,   1,       893.2,       850.8,         0.0,         0.0,         0.0,         0.0
"Line.L52"              ,   2,      -892.2,      -848.6
"Line.L53"              ,   1,       852.2,       828.6,         0.0,         0.0,         0.0,         0.0
"Line.L53"              ,   2,      -851.6,      -827.4
"Line.L54"              ,   1,        39.3,        19.6,         0.0,         0.0,         0.0,         0.0
"Line.L54"              ,   2,       -39.3,       -19.6
"Line.L55"              ,   1,       852.3,       807.8,         0.0,         0.0,         0.0,         0.0
"Line.L55"              ,   2,      -850.7,      -804.4
"Line.L56"              ,   1,        20.0,        10.0,         0.0,         0.0,         0.0,         0.0
"Line.L56"              ,   2,       -20.0,       -10.0
"Line.L57"              ,   1,        40.4,        20.1,         0.0,         0.0,         0.0,         0.0
"Line.L57"              ,   2,       -40.3,       -20.1
"Line.L58"              ,   1,       810.3,       784.4,         0.0,         0.0,         0.0,         0.0
"Line.L58"              ,   2,      -807.1,      -777.7
"Line.L59"              ,   1,        20.0,         9.9,         0.0,         0.0,         0.0,         0.0
"Line.L59"              ,   2,       -20.0,       -10.0
"Line.L60"              ,   1,      -239.9,       -69.8,         0.0,         0.0,         0.0,         0.0
"Line.L60"              ,   2,       240.0,        70.0
"Line.L61"              ,   1,       328.0,       207.8,         0.0,         0.0,         0.0,         0.0
"Line.L61"              ,   2,      -327.5,      -207.6
"Line.L62"              ,   1,       288.1,       187.9,         0.0,         0.0,         0.0,         0.0
"Line.L62"              ,   2,      -287.9,      -187.8
"Line.L63"              ,   1,       247.9,       167.8,         0.0,         0.0,         0.0,         0.0
"Line.L63"              ,   2,      -247.3,      -167.7
"Line.L64"              ,   1,       171.7,       132.4,         0.0,         0.0,         0.0,         0.0
"Line.L64"              ,   2,      -171.3,      -132.3
"Line.L65"              ,   1,        35.1,        35.0,         0.0,         0.0,         0.0,         0.0
"Line.L65"              ,   2,       -35.0,       -35.0
"Line.L66"              ,   1,       120.5,        60.0,         0.0,         0.0,         0.0,         0.0
"Line.L66"              ,   2,      -120.3,       -60.0
"Line.L67"              ,   1,       740.4,       489.1,         0.0,         0.0,         0.0,         0.0
"Line.L67"              ,   2,      -739.6,      -487.5
"Line.L68"              ,   1,      -163.1,        78.1,         0.0,         0.0,         0.0,         0.0
"Line.L68"              ,   2,       163.1,       -78.0
"Line.L69"              ,   1,       100.3,        50.0,         0.0,         0.0,         0.0,         0.0
"Line.L69"              ,   2,      -100.1,       -49.9
"Line.L70"              ,   1,        60.1,        29.9,         0.0,         0.0,         0.0,         0.0
"Line.L70"              ,   2,       -60.0,       -30.0
"Line.L71"              ,   1,        40.0,        20.0,         0.0,         0.0,         0.0,         0.0
"Line.L71"              ,   2,       -40.0,       -20.0
"Line.L72"              ,   1,        79.5,        59.5,         0.0,         0.0,         0.0,         0.0
"Line.L72"              ,   2,       -79.2,       -59.4
"Line.L73"              ,   1,       660.1,       428.0,         0.0,         0.0,         0.0,         0.0
"Line.L73"              ,   2,      -659.6,      -427.0
"Line.L74"              ,   1,        39.2,        39.4,         0.0,         0.0,         0.0,         0.0
"Line.L74"              ,   2,       -39.0,       -39.4
"Line.L75"              ,   1,         0.1,        20.0,         0.0,         0.0,         0.0,         0.0
"Line.L75"              ,   2,        -0.0,       -20.0
"Line.L76"              ,   1,       157.6,       118.8,         0.0,         0.0,         0.0,         0.0
"Line.L76"              ,   2,      -157.5,      -118.7
"Line.L77"              ,   1,       260.6,       130.9,         0.0,         0.0,         0.0,         0.0
"Line.L77"              ,   2,      -260.4,      -130.3
"Line.L78"              ,   1,       157.5,        98.7,         0.0,         0.0,         0.0,         0.0
"Line.L78"              ,   2,      -157.5,       -98.7
"Line.L79"              ,   1,        -2.8,        18.6,         0.0,         0.0,         0.0,         0.0
"Line.L79"              ,   2,         2.8,       -18.6
"Line.L80"              ,   1,       160.3,        80.0,         0.0,         0.0,         0.0,         0.0
"Line.L80"              ,   2,      -160.2,       -79.9
"Line.L81"              ,   1,       120.2,        59.9,         0.0,         0.0,         0.0,         0.0
"Line.L81"              ,   2,      -120.2,       -59.9
"Line.L82"              ,   1,        60.0,        30.0,         0.0,         0.0,         0.0,         0.0
"Line.L82"              ,   2,       -60.0,       -30.0
"Line.L83"              ,   1,        60.2,        29.9,         0.0,         0.0,         0.0,         0.0
"Line.L83"              ,   2,       -60.0,       -29.9
"Line.L84"              ,   1,        20.0,        10.0,         0.0,         0.0,         0.0,         0.0
"Line.L84"              ,   2,       -20.0,       -10.0
"Line.L85"              ,   1,        40.0,        19.9,         0.0,         0.0,         0.0,         0.0
"Line.L85"              ,   2,       -40.0,       -20.0
"Line.L86"              ,   1,       240.4,       120.3,         0.0,         0.0,         0.0,         0.0
"Line.L86"              ,   2,      -240.2,      -119.9
"Line.L87"              ,   1,        40.0,        20.0,         0.0,         0.0,         0.0,         0.0
"Line.L87"              ,   2,       -40.0,       -20.0
"Line.L88"              ,   1,       160.2,        80.0,         0.0,         0.0,         0.0,         0.0
"Line.L88"              ,   2,      -160.2,       -79.9
"Line.L89"              ,   1,        40.1,        20.0,         0.0,         0.0,         0.0,         0.0
"Line.L89"              ,   2,       -40.0,       -20.0
"Line.L90"              ,   1,       120.1,        59.9,         0.0,         0.0,         0.0,         0.0
"Line.L90"              ,   2,      -120.1,       -59.9
"Line.L91"              ,   1,        40.0,        19.9,         0.0,         0.0,         0.0,         0.0
"Line.L91"              ,   2,       -40.0,       -20.0
"Line.L92"              ,   1,        80.1,        40.0,         0.0,         0.0,         0.0,         0.0
"Line.L92"              ,   2,       -80.0,       -39.9
"Line.L93"              ,   1,        40.0,        20.0,         0.0,         0.0,         0.0,         0.0
"Line.L93"              ,   2,       -40.0,       -20.0
"Line.L94"              ,   1,        40.0,        20.0,         0.0,         0.0,         0.0,         0.0
"Line.L94"              ,   2,       -40.0,       -20.0
"Line.L95"              ,   1,        20.0,        10.0,         0.0,         0.0,         0.0,         0.0
"Line.L95"              ,   2,       -20.0,       -10.0
"Line.L96"              ,   1,      -120.6,       -10.3,         0.0,         0.0,         0.0,         0.0
"Line.L96"              ,   2,       120.7,        10.3
"Line.L97"              ,   1,        79.4,        39.7,         0.0,         0.0,         0.0,         0.0
"Line.L97"              ,   2,       -79.3,       -39.7
"Line.L98"              ,   1,        39.3,        19.7,         0.0,         0.0,         0.0,         0.0
"Line.L98"              ,   2,       -39.3,       -19.6
"Line.L99"              ,   1,         0.0,        -0.0,         0.0,         0.0,         0.0,         0.0
"Line.L99"              ,   2,         0.0,         0.0
"Line.L100"             ,   1,        20.5,        50.0,         0.0,         0.0,         0.0,         0.0
"Line.L100"             ,   2,       -20.3,       -50.0
"Line.L101"             ,   1,       -23.0,        38.2,         0.0,         0.0,         0.0,         0.0
"Line.L101"             ,   2,        23.1,       -38.1
"Line.L102"             ,   1,        40.3,        40.0,         0.0,         0.0,         0.0,         0.0
"Line.L102"             ,   2,       -40.2,       -39.9
"Line.L103"             ,   1,         0.2,        19.9,         0.0,         0.0,         0.0,         0.0
"Line.L103"             ,   2,         0.0,       -20.0
"Line.L104"             ,   1,        80.2,        39.9,         0.0,         0.0,         0.0,         0.0
"Line.L104"             ,   2,       -80.1,       -39.9
"Line.L105"             ,   1,       136.7,        68.1,         0.0,         0.0,         0.0,         0.0
"Line.L105"             ,   2,      -136.6,       -67.8
"Line.L106"             ,   1,        40.1,        19.9,         0.0,         0.0,         0.0,         0.0
"Line.L106"             ,   2,       -40.0,       -20.0
"Line.L107"             ,   1,       136.6,        67.8,         0.0,         0.0,         0.0,         0.0
"Line.L107"             ,   2,      -136.0,       -67.6
"Line.L108"             ,   1,         0.0,        -0.0,         0.0,         0.0,         0.0,         0.0
"Line.L108"             ,   2,         0.0,        -0.0
"Line.L109"             ,   1,        96.0,        47.6,         0.0,         0.0,         0.0,         0.0
"Line.L109"             ,   2,       -95.8,       -47.6
"Line.L110"             ,   1,        20.0,         9.9,         0.0,         0.0,         0.0,         0.0
"Line.L110"             ,   2,       -20.0,       -10.0
"Line.L111"             ,   1,        75.8,        37.7,         0.0,         0.0,         0.0,         0.0
"Line.L111"             ,   2,       -75.8,       -37.7
"Line.L112"             ,   1,        56.6,        28.1,         0.0,         0.0,         0.0,         0.0
"Line.L112"             ,   2,       -56.5,       -28.2
"Line.L113"             ,   1,        20.0,         9.9,         0.0,         0.0,         0.0,         0.0
"Line.L113"             ,   2,       -20.0,       -10.0
"Line.L119"             ,   1,       -40.0,         0.0,         0.0,         0.0,         0.0,         0.0
"Line.L119"             ,   2,        40.0,        -0.0
"Line.L120"             ,   1,       -40.0,         0.0,         0.0,         0.0,         0.0,         0.0
"Line.L120"             ,   2,        40.0,         0.0
"Line.L121"             ,   1,      -239.9,       -69.9,         0.0,         0.0,         0.0,         0.0
"Line.L121"             ,   2,       240.0,        70.0
"Line.L114"             ,   1,       634.1,       471.9,         0.0,         0.0,         0.0,         0.0
"Line.L114"             ,   2,      -633.3,      -470.2
"Line.L116"             ,   1,       935.5,       875.5,         0.0,         0.0,         0.0,         0.0
"Line.L116"             ,   2,      -933.2,      -870.8
"Line.L117"             ,   1,       698.9,       629.6,         0.0,         0.0,         0.0,         0.0
"Line.L117"             ,   2,      -697.8,      -627.2
"Line.L118"             ,   1,        -2.5,        88.2,         0.0,         0.0,         0.0,         0.0
"Line.L118"             ,   2,         2.5,       -88.2
"Load.S1A"              ,   1,        40.0,        20.0
"Load.S2B"              ,   1,        20.0,        10.0
"Load.S4C"              ,   1,        40.0,        20.0
"Load.S5C"              ,   1,        20.4,        10.2
"Load.S6C"              ,   1,        41.5,        20.8
"Load.S7A"              ,   1,        20.0,        10.0
"Load.S9A"              ,   1,        40.0,        20.0
"Load.S10A"             ,   1,        19.9,        10.0
"Load.S11A"             ,   1,        39.6,        19.8
"Load.S12B"             ,   1,        20.0,        10.0
"Load.S16C"             ,   1,        40.0,        20.0
"Load.S17C"             ,   1,        20.0,        10.0
"Load.S19A"             ,   1,        40.0,        20.0
"Load.S20A"             ,   1,        39.2,        19.6
"Load.S22B"             ,   1,        41.6,        20.8
"Load.S24C"             ,   1,        40.0,        20.0
"Load.S28A"             ,   1,        39.2,        19.6
"Load.S29A"             ,   1,        38.5,        19.2
"Load.S30C"             ,   1,        40.0,        20.0
"Load.S31C"             ,   1,        20.0,        10.0
"Load.S32C"             ,   1,        20.0,        10.0
"Load.S33A"             ,   1,        39.2,        19.6
"Load.S34C"             ,   1,        40.5,        20.3
"Load.S35A"             ,   1,        40.0,        20.0
"Load.S37A"             ,   1,        38.3,        19.1
"Load.S38B"             ,   1,        20.4,        10.2
"Load.S39B"             ,   1,        20.0,        10.0
"Load.S41C"             ,   1,        20.0,        10.0
"Load.S42A"             ,   1,        20.0,        10.0
"Load.S43B"             ,   1,        41.3,        20.7
"Load.S45A"             ,   1,        19.5,         9.7
"Load.S46A"             ,   1,        20.0,        10.0
"Load.S47"              ,   1,       104.4,        74.6
"Load.S48"              ,   1,       207.8,       148.4
"Load.S49A"             ,   1,        35.0,        25.0
"Load.S49B"             ,   1,        70.0,        50.0
"Load.S49C"             ,   1,        35.0,        20.0
"Load.S50C"             ,   1,        40.0,        20.0
"Load.S51A"             ,   1,        20.0,        10.0
"Load.S52A"             ,   1,        40.0,        20.0
"Load.S53A"             ,   1,        40.0,        20.0
"Load.S55A"             ,   1,        19.3,         9.6
"Load.S56B"             ,   1,        20.0,        10.0
"Load.S58B"             ,   1,        20.3,        10.2
"Load.S59B"             ,   1,        20.0,        10.0
"Load.S60A"             ,   1,        20.0,        10.0
"Load.S62C"             ,   1,        39.4,        19.7
"Load.S63A"             ,   1,        40.0,        20.0
"Load.S64B"             ,   1,        75.6,        35.3
"Load.S65A"             ,   1,        33.6,        24.0
"Load.S65B"             ,   1,        34.9,        24.9
"Load.S65C"             ,   1,        67.6,        48.3
"Load.S66C"             ,   1,        75.0,        35.0
"Load.S68A"             ,   1,        20.0,        10.0
"Load.S69A"             ,   1,        40.0,        20.0
"Load.S70A"             ,   1,        20.0,        10.0
"Load.S71A"             ,   1,        40.0,        20.0
"Load.S73C"             ,   1,        40.0,        20.0
"Load.S74C"             ,   1,        39.0,        19.5
"Load.S75C"             ,   1,        40.0,        20.0
"Load.S76A"             ,   1,       102.6,        78.2
"Load.S76B"             ,   1,        69.9,        49.9
"Load.S76C"             ,   1,        68.9,        49.2
"Load.S77B"             ,   1,        40.0,        20.0
"Load.S79A"             ,   1,        37.2,        18.6
"Load.S80B"             ,   1,        40.0,        20.0
"Load.S82A"             ,   1,        40.0,        20.0
"Load.S83C"             ,   1,        20.0,        10.0
"Load.S84C"             ,   1,        20.0,        10.0
"Load.S85C"             ,   1,        40.0,        20.0
"Load.S86B"             ,   1,        20.0,        10.0
"Load.S87B"             ,   1,        40.0,        20.0
"Load.S88A"             ,   1,        40.0,        20.0
"Load.S90B"             ,   1,        40.0,        20.0
"Load.S92C"             ,   1,        40.0,        20.0
"Load.S94A"             ,   1,        40.0,        20.0
"Load.S95B"             ,   1,        20.0,        10.0
"Load.S96B"             ,   1,        20.0,        10.0
"Load.S98A"             ,   1,        40.0,        20.0
"Load.S99B"             ,   1,        40.0,        20.0
"Load.S100C"            ,   1,        39.3,        19.7
"Load.S102C"            ,   1,        20.0,        10.0
"Load.S103C"            ,   1,        40.0,        20.0
"Load.S104C"            ,   1,        40.0,        20.0
"Load.S106B"            ,   1,        40.0,        20.0
"Load.S107B"            ,   1,        40.0,        20.0
"Load.S109A"            ,   1,        40.0,        20.0
"Load.S111A"            ,   1,        20.0,        10.0
"Load.S112A"            ,   1,        19.1,         9.6
"Load.S113A"            ,   1,        36.5,        18.3
"Load.S114A"            ,   1,        20.0,        10.0
"Generator.G1"          ,   1,      -240.0,       -70.0
"Generator.G2"          ,   1,      -240.0,       -70.0
"Generator.G3"          ,   1,      -240.0,       -70.0
"PVSystem.PV1"          ,   1,       -40.0,         0.0
"PVSystem.PV2"          ,   1,       -40.0,         0.0
"PVSystem.PV3"          ,   1,       -40.0,         0.0
"PVSystem.PV4"          ,   1,       -40.0,         0.0
"PVSystem.PV5"          ,   1,       -40.0,         0.0
"PVSystem.PV6"          ,   1,       -40.0,        -0.0
"PVSystem.PV7"          ,   1,       -40.0,        -0.0
"PVSystem.PV8"          ,   1,       -40.0,        -0.0
"PVSystem.PV9"          ,   1,       -40.0,        -0.0
"PVSystem.PV10"         ,   1,       -40.0,        -0.0
"PVSystem.PV11"         ,   1,       -40.0,        -0.0
"PVSystem.PV12"         ,   1,       -40.0,        -0.0
"PVSystem.PV13"         ,   1,       -40.0,        -0.0
"PVSystem.PV14"         ,   1,       -40.0,        -0.0
"PVSystem.PV15"         ,   1,       -40.0,        -0.0
